12484460
  -OEChem-03142210563D

 32 33  0     0  0  0  0  0  0999 V2000
    5.2730   -0.6199    0.3389 O   0  0  0  0  0  0  0  0  0  0  0  0
    4.4249    1.8099   -0.7110 O   0  0  0  0  0  0  0  0  0  0  0  0
   -5.7947   -1.6715   -0.6613 O   0  0  0  0  0  0  0  0  0  0  0  0
    1.2413    0.2694    0.1542 C   0  0  0  0  0  0  0  0  0  0  0  0
   -2.6173   -0.0215    0.0944 C   0  0  0  0  0  0  0  0  0  0  0  0
    2.1585    1.1966   -0.3131 C   0  0  0  0  0  0  0  0  0  0  0  0
   -0.1974    0.5817    0.0900 C   0  0  0  0  0  0  0  0  0  0  0  0
    1.6483   -0.9462    0.6798 C   0  0  0  0  0  0  0  0  0  0  0  0
    3.9458   -0.3195    0.2735 C   0  0  0  0  0  0  0  0  0  0  0  0
    3.5203    0.9001   -0.2531 C   0  0  0  0  0  0  0  0  0  0  0  0
   -1.1968   -0.3306    0.1384 C   0  0  0  0  0  0  0  0  0  0  0  0
    3.0100   -1.2426    0.7398 C   0  0  0  0  0  0  0  0  0  0  0  0
   -3.5357   -1.0078   -0.2655 C   0  0  0  0  0  0  0  0  0  0  0  0
   -3.0612    1.2624    0.4117 C   0  0  0  0  0  0  0  0  0  0  0  0
   -4.8979   -0.7102   -0.3082 C   0  0  0  0  0  0  0  0  0  0  0  0
   -4.4231    1.5599    0.3691 C   0  0  0  0  0  0  0  0  0  0  0  0
   -5.3415    0.5736    0.0093 C   0  0  0  0  0  0  0  0  0  0  0  0
    5.8434   -1.2838   -0.7871 C   0  0  0  0  0  0  0  0  0  0  0  0
    1.8362    2.1491   -0.7265 H   0  0  0  0  0  0  0  0  0  0  0  0
   -0.4170    1.6402   -0.0209 H   0  0  0  0  0  0  0  0  0  0  0  0
    0.9579   -1.6842    1.0752 H   0  0  0  0  0  0  0  0  0  0  0  0
   -0.9713   -1.3920    0.1966 H   0  0  0  0  0  0  0  0  0  0  0  0
    3.3354   -2.1921    1.1566 H   0  0  0  0  0  0  0  0  0  0  0  0
   -3.2027   -2.0125   -0.5171 H   0  0  0  0  0  0  0  0  0  0  0  0
   -2.3875    2.0567    0.7192 H   0  0  0  0  0  0  0  0  0  0  0  0
   -4.7697    2.5580    0.6211 H   0  0  0  0  0  0  0  0  0  0  0  0
   -6.4000    0.8181   -0.0192 H   0  0  0  0  0  0  0  0  0  0  0  0
    5.3196    1.4607   -0.5572 H   0  0  0  0  0  0  0  0  0  0  0  0
    6.9122   -1.4187   -0.6000 H   0  0  0  0  0  0  0  0  0  0  0  0
    5.7200   -0.6854   -1.6953 H   0  0  0  0  0  0  0  0  0  0  0  0
    5.3848   -2.2685   -0.9217 H   0  0  0  0  0  0  0  0  0  0  0  0
   -6.6897   -1.2912   -0.6381 H   0  0  0  0  0  0  0  0  0  0  0  0
  1  9  1  0  0  0  0
  1 18  1  0  0  0  0
  2 10  1  0  0  0  0
  2 28  1  0  0  0  0
  3 15  1  0  0  0  0
  3 32  1  0  0  0  0
  4  6  2  0  0  0  0
  4  7  1  0  0  0  0
  4  8  1  0  0  0  0
  5 11  1  0  0  0  0
  5 13  2  0  0  0  0
  5 14  1  0  0  0  0
  6 10  1  0  0  0  0
  6 19  1  0  0  0  0
  7 11  2  0  0  0  0
  7 20  1  0  0  0  0
  8 12  2  0  0  0  0
  8 21  1  0  0  0  0
  9 10  2  0  0  0  0
  9 12  1  0  0  0  0
 11 22  1  0  0  0  0
 12 23  1  0  0  0  0
 13 15  1  0  0  0  0
 13 24  1  0  0  0  0
 14 16  2  0  0  0  0
 14 25  1  0  0  0  0
 15 17  2  0  0  0  0
 16 17  1  0  0  0  0
 16 26  1  0  0  0  0
 17 27  1  0  0  0  0
 18 29  1  0  0  0  0
 18 30  1  0  0  0  0
 18 31  1  0  0  0  0
M  END
> <PUBCHEM_COMPOUND_CID>
12484460

> <PUBCHEM_CONFORMER_RMSD>
0.6

> <PUBCHEM_CONFORMER_DIVERSEORDER>
9
4
8
3
11
1
12
2
10
6
7
5

> <PUBCHEM_MMFF94_PARTIAL_CHARGES>
29
1 -0.36
10 0.08
11 -0.18
12 -0.15
13 -0.15
14 -0.15
15 0.08
16 -0.15
17 -0.15
18 0.28
19 0.15
2 -0.53
20 0.15
21 0.15
22 0.15
23 0.15
24 0.15
25 0.15
26 0.15
27 0.15
28 0.45
3 -0.53
32 0.45
4 0.03
5 0.03
6 -0.15
7 -0.18
8 -0.15
9 0.08

> <PUBCHEM_EFFECTIVE_ROTOR_COUNT>
3

> <PUBCHEM_PHARMACOPHORE_FEATURES>
5
1 1 acceptor
1 2 donor
1 3 donor
6 4 6 8 9 10 12 rings
6 5 13 14 15 16 17 rings

> <PUBCHEM_HEAVY_ATOM_COUNT>
18

> <PUBCHEM_ATOM_DEF_STEREO_COUNT>
0

> <PUBCHEM_ATOM_UDEF_STEREO_COUNT>
0

> <PUBCHEM_BOND_DEF_STEREO_COUNT>
1

> <PUBCHEM_BOND_UDEF_STEREO_COUNT>
0

> <PUBCHEM_ISOTOPIC_ATOM_COUNT>
0

> <PUBCHEM_COMPONENT_COUNT>
1

> <PUBCHEM_CACTVS_TAUTO_COUNT>
8

> <PUBCHEM_CONFORMER_ID>
00BE7F6C00000009

> <PUBCHEM_MMFF94_ENERGY>
63.784

> <PUBCHEM_FEATURE_SELFOVERLAP>
25.371

> <PUBCHEM_SHAPE_FINGERPRINT>
10366900 7 17312822666996817608
10595046 47 18410574006842740857
10912923 1 18409166606347600777
11315181 36 18131351903803632585
11471102 20 18113900476928168784
12107183 9 17689151210692584553
12236239 1 18413388735071636000
13167823 11 18411697694936397567
13288520 33 18272087202231859495
13862211 1 18260544481919249362
14251764 18 18259701212456294880
14528608 73 18334016116059995268
15196674 1 18410012147684542129
15788980 27 18413392029184899555
17834072 33 18409448098287811445
17844677 252 18343871021505229185
18681886 176 18343578556197435378
19489759 90 17346315969265175417
200 152 18412260653669469305
20612939 158 18040441009949562300
20645477 70 18408886226777571302
21054139 6 18409722980411290106
21267235 1 18410580591280839291
21641784 216 16516543083892922302
21709351 56 18334852801321994565
22224240 67 11239704255406100678
22646028 1 18411697699310388713
2297311 6 18060706074211329153
23402539 116 18342734109718756605
23402655 69 18335702771239326602
23536379 177 18343302552476283704
23559900 14 18270671091269204233
29717793 49 18343582927936079028
300161 21 18334850615531780617
3004659 81 18409449172451635114
34797466 226 17346045587878240980
3545911 37 18412263900701733257
4214541 1 18411698768926199905
42788 4 18410573985272822497
474 4 17677054675726980316
4990 188 18273220776791703038
5104073 3 18408886252083197753
542803 24 18186239528493789449
559249 180 18341891849119981775
573450 72 18341325613874963609
7495541 125 17632572794426548689
77779 3 18409448077008192833
9709674 26 18410299094834989163
9971528 1 17894912949268685500
9981440 41 17400076873499714688

> <PUBCHEM_SHAPE_MULTIPOLES>
352.82
14.61
1.61
0.78
1.42
0.15
0
-2.75
2.3
0.14
0.16
-0.29
-0.08
-0.94

> <PUBCHEM_SHAPE_SELFOVERLAP>
757.683

> <PUBCHEM_SHAPE_VOLUME>
196.4

> <PUBCHEM_COORDINATE_TYPE>
2
5
10

$$$$
